LAMMPS (7 Aug 2019)
units lj
dimension 3
boundary p p p
atom_style atomic

lattice fcc 0.005
Lattice spacing in x,y,z = 9.28318 9.28318 9.28318

region simbox block 0 10 0 10 0 10
create_box 1 simbox
Created orthogonal box = (0 0 0) to (92.8318 92.8318 92.8318)
create_atoms 1 box
Created 4000 atoms

mass 1 1.0
velocity all create 10 97432
pair_style sgcolloidal 2
pair_coeff 1 1 8 0.5
# pair_style lj/cut 3.0
# pair_coeff 1 1 1.0 1.0 3.0

# fix 1 all nve
fix 1 all nvt temp 0.4 0.4 100.0
timestep 0.01

# compute orientorder all orientorder/atom degrees 1 6 components 6 cutoff 1.2
# compute makesense all orientorder/atom degrees 1 6 cutoff 1.2

# compute wolde05 all coord/atom orientorder orient 0.5
# compute wolde09 all coord/atom orientorder orient 0.9
# dump 1 all custom 10 wolde.dump c_wolde[*]
# dump wolde all custom 100 lj.dump id type x y z vx vy vz c_wolde05[*] c_wolde09[*]
# dump makesense all custom 100 makesense.dump id c_makesense[*]
# dump orderparam all custom 100 orderparam.dump id x y z vx vy vz c_orientation[*]
# run 10000
dump positions all custom 100 pos2.bin id x y z vx vy vz
thermo 400
run 10000
  update every 1 steps, delay 10 steps, check yes
Step Temp E_pair E_mol TotEng Press
0           10            0            0     14.99625    0.0499875
Averages over the last 13 of 26 rows, steps 5200 to 10000:
Temp E_pair E_mol TotEng Press
3.68729 0.00644975 0 5.53599 0.0185314
Loop time of 0.690861 on 10 procs for 10000 steps with 4000 atoms

unfix 1
fix 1 all nvt temp 0.4 0.2 10.0
run 100000
Step Temp E_pair E_mol TotEng Press
10000    2.6534096 0.0050265716            0     3.984146  0.013343019
Averages over the last 126 of 251 rows, steps 60000 to 110000:
Temp E_pair E_mol TotEng Press
0.250011 -0.0077152 0 0.367208 0.00120073
Loop time of 6.59439 on 10 procs for 100000 steps with 4000 atoms

unfix 1
fix 1 all nvt temp 0.2 0.07 10.0
run 1000000
Step Temp E_pair E_mol TotEng Press
110000   0.19998536 -0.010554257            0   0.28934879 0.00095115159
Averages over the last 1251 of 2501 rows, steps 610000 to 1110000:
Temp E_pair E_mol TotEng Press
0.103116 -0.164543 0 -0.00990713 0.000303394
Loop time of 132.641 on 10 procs for 1000000 steps with 4000 atoms

# unfix 1
# fix 1 all nvt temp 0.02 0.02 10.0
# run 1000000
